<?xml version="1.0" encoding="UTF-8"?>

<!-- generated on 2023-07-01 16:28:11 by Eclipse SUMO netconvert Version 1.13.0
<configuration xmlns:xsi="http://www.w3.org/2001/XMLSchema-instance" xsi:noNamespaceSchemaLocation="http://sumo.dlr.de/xsd/netconvertConfiguration.xsd">

    <input>
        <opendrive-files value="testTrack.xodr"/>
    </input>

    <output>
        <output-file value="testTrack.net.xml"/>
    </output>

    <processing>
        <geometry.max-grade.fix value="false"/>
    </processing>

    <tls_building>
        <tls.left-green.time value="0"/>
    </tls_building>

    <junctions>
        <rectangular-lane-cut value="true"/>
    </junctions>

    <report>
        <aggregate-warnings value="5"/>
    </report>

</configuration>
-->

<net version="1.9" junctionCornerDetail="5" rectangularLaneCut="true" limitTurnSpeed="5.50" xmlns:xsi="http://www.w3.org/2001/XMLSchema-instance" xsi:noNamespaceSchemaLocation="http://sumo.dlr.de/xsd/net_file.xsd">

    <location netOffset="290.82,209.92" convBoundary="0.00,0.00,581.65,419.85" origBoundary="0.000000,0.000000,0.000000,0.000000" projParameter="+proj=tmerc +lat_0=0.0002753759838587158 +lon_0=0.00149550944528596 +k=1 +x_0=0 +y_0=0 +datum=WGS84 +units=m +geoidgrids=egm96_15.gtx +vunits=m +no_defs "/>

    <type id="bidirectional" priority="1" speed="1.39" disallow="pedestrian tram rail_urban rail rail_electric rail_fast ship" width="3.65"/>
    <type id="border" priority="0" speed="1.39" disallow="all" discard="1" width="0.10"/>
    <type id="driving" priority="1" speed="13.89" disallow="pedestrian tram rail_urban rail rail_electric rail_fast ship" width="3.65"/>
    <type id="entry" priority="1" speed="22.22" disallow="pedestrian tram rail_urban rail rail_electric rail_fast ship" width="3.65"/>
    <type id="exit" priority="1" speed="22.22" disallow="pedestrian tram rail_urban rail rail_electric rail_fast ship" width="3.65"/>
    <type id="median" priority="0" speed="1.39" disallow="all" discard="1" width="0.10"/>
    <type id="mwyEntry" priority="1" speed="22.22" allow="private emergency authority army vip passenger hov taxi bus coach delivery truck trailer motorcycle evehicle custom1 custom2" width="3.65"/>
    <type id="mwyExit" priority="1" speed="22.22" allow="private emergency authority army vip passenger hov taxi bus coach delivery truck trailer motorcycle evehicle custom1 custom2" width="3.65"/>
    <type id="none" priority="0" speed="1.39" disallow="all" discard="1" width="1.00"/>
    <type id="offRamp" priority="1" speed="22.22" allow="private emergency authority army vip passenger hov taxi bus coach delivery truck trailer motorcycle evehicle custom1 custom2" width="3.65"/>
    <type id="onRamp" priority="1" speed="22.22" allow="private emergency authority army vip passenger hov taxi bus coach delivery truck trailer motorcycle evehicle custom1 custom2" width="3.65"/>
    <type id="parking" priority="1" speed="1.39" disallow="pedestrian tram rail_urban rail rail_electric rail_fast ship" width="2.50"/>
    <type id="rail" priority="3" speed="33.33" allow="rail_urban rail rail_electric rail_fast" width="3.65"/>
    <type id="restricted" priority="0" speed="13.89" disallow="all" width="3.65"/>
    <type id="roadWorks" priority="0" speed="1.39" allow="authority" width="3.65"/>
    <type id="shoulder" priority="0" speed="1.39" disallow="all" discard="1" width="1.00"/>
    <type id="special1" priority="1" speed="22.22" allow="custom1" discard="1" width="3.65"/>
    <type id="special2" priority="1" speed="22.22" allow="custom2" discard="1" width="3.65"/>
    <type id="special3" priority="1" speed="22.22" allow="custom1 custom2" discard="1" width="3.65"/>
    <type id="stop" priority="1" speed="13.89" disallow="pedestrian tram rail_urban rail rail_electric rail_fast ship" width="3.65"/>
    <type id="tram" priority="2" speed="13.89" allow="tram" width="3.65"/>

    <edge id=":0.begin_0" function="internal">
        <lane id=":0.begin_0_0" index="0" disallow="pedestrian tram rail_urban rail rail_electric rail_fast ship" speed="3.69" length="4.78" width="3.25" shape="562.25,381.52 563.67,381.12 564.56,381.35 564.91,382.20 564.72,383.66"/>
    </edge>
    <edge id=":0.end_0" function="internal">
        <lane id=":0.end_0_0" index="0" disallow="pedestrian tram rail_urban rail rail_electric rail_fast ship" speed="3.76" length="4.78" width="3.25" shape="564.86,383.44 563.52,384.05 562.61,383.96 562.13,383.18 562.08,381.71"/>
    </edge>

    <edge id="-0" from="0.begin" to="0.end" priority="1" type="driving" shape="563.48,382.58 556.94,390.13 549.71,397.04 541.94,403.33 533.37,408.46 524.30,412.66 514.90,416.05 505.15,418.25 495.24,419.55 485.25,419.85 475.28,419.14 465.38,417.75 455.59,415.72 445.91,413.21 436.30,410.46 426.69,407.70 417.07,404.95 407.46,402.20 397.85,399.45 388.23,396.69 378.62,393.94 369.00,391.19 359.39,388.44 349.78,385.68 340.16,382.93 330.55,380.18 320.94,377.43 311.32,374.67 301.71,371.92 292.09,369.17 282.48,366.42 272.87,363.66 263.25,360.91 253.64,358.16 244.03,355.41 234.41,352.65 224.80,349.90 215.18,347.15 205.57,344.40 195.96,341.65 186.34,338.89 176.73,336.14 167.12,333.39 157.50,330.64 147.92,327.79 138.34,324.90 128.77,322.02 119.19,319.14 109.67,316.08 100.37,312.41 91.19,308.44 82.26,303.96 73.70,298.79 65.56,292.98 57.80,286.68 50.40,279.96 43.37,272.85 36.69,265.42 30.28,257.74 24.39,249.67 19.24,241.10 14.65,232.22 10.76,223.01 7.38,213.60 4.67,203.98 2.65,194.19 1.34,184.28 0.41,174.32 0.00,164.33 0.23,154.34 1.03,144.37 2.33,134.46 4.29,124.66 6.81,114.98 10.10,105.54 13.83,96.27 18.12,87.24 23.04,78.53 28.46,70.13 34.35,62.06 40.75,54.37 47.60,47.09 54.82,40.18 62.48,33.75 70.53,27.83 78.93,22.41 87.62,17.46 96.62,13.11 105.92,9.45 115.38,6.19 125.04,3.64 134.84,1.67 144.78,0.61 154.76,0.03 164.76,0.00 174.73,0.60 184.65,1.90 194.44,3.89 204.11,6.42 213.62,9.52 222.89,13.26 231.93,17.53 240.74,22.26 249.24,27.52 257.48,33.18 265.59,39.04 273.62,45.00 281.61,51.01 289.54,57.10 297.47,63.19 305.40,69.28 313.33,75.37 321.26,81.46 329.20,87.56 337.13,93.65 345.06,99.74 352.99,105.83 360.92,111.92 368.85,118.01 376.78,124.10 384.71,130.20 392.64,136.29 400.57,142.38 408.50,148.47 416.43,154.56 424.36,160.65 432.29,166.74 440.22,172.84 448.15,178.93 456.09,185.02 464.02,191.11 471.95,197.20 479.88,203.29 487.81,209.38 495.74,215.48 503.67,221.57 511.60,227.66 519.53,233.75 527.46,239.84 535.39,245.93 543.25,252.11 550.71,258.77 557.64,265.97 563.92,273.75 569.40,282.10 573.84,291.05 577.25,300.44 579.83,310.10 581.26,319.99 581.65,329.98 581.15,339.96 579.26,349.76 576.25,359.29 572.27,368.45 563.48,382.58">
        <lane id="-0_0" index="0" disallow="pedestrian tram rail_urban rail rail_electric rail_fast ship" speed="17.88" length="1556.28" width="3.25" shape="564.72,383.66 558.11,391.25 550.78,398.26 542.88,404.67 534.13,409.90 524.92,414.17 515.36,417.61 505.43,419.85 495.37,421.17 485.22,421.47 475.11,420.75 465.10,419.35 455.22,417.31 445.49,414.78 435.85,412.02 426.24,409.26 416.63,406.51 407.01,403.76 397.40,401.01 387.78,398.26 378.17,395.50 368.56,392.75 358.94,390.00 349.33,387.25 339.72,384.49 330.10,381.74 320.49,378.99 310.87,376.24 301.26,373.48 291.65,370.73 282.03,367.98 272.42,365.23 262.81,362.47 253.19,359.72 243.58,356.97 233.96,354.22 224.35,351.46 214.74,348.71 205.12,345.96 195.51,343.21 185.90,340.46 176.28,337.70 166.67,334.95 157.05,332.20 147.45,329.34 137.87,326.46 128.30,323.58 118.71,320.69 109.12,317.61 99.75,313.91 90.50,309.92 81.47,305.38 72.81,300.15 64.58,294.28 56.74,287.92 49.27,281.14 42.19,273.96 35.46,266.48 29.00,258.74 23.03,250.57 17.82,241.89 13.18,232.91 9.25,223.60 5.83,214.10 3.09,204.36 1.05,194.46 -0.27,184.46 -1.21,174.43 -1.63,164.35 -1.39,154.26 -0.59,144.20 0.73,134.19 2.71,124.30 5.25,114.51 8.58,104.97 12.34,95.61 16.68,86.49 21.65,77.69 27.12,69.21 33.07,61.06 39.53,53.30 46.44,45.94 53.74,38.97 61.48,32.47 69.61,26.49 78.09,21.02 86.86,16.02 95.97,11.62 105.36,7.93 114.90,4.63 124.67,2.05 134.59,0.06 144.64,-1.01 154.71,-1.59 164.80,-1.63 174.89,-1.02 184.91,0.30 194.81,2.31 204.57,4.86 214.18,7.99 223.55,11.77 232.66,16.08 241.55,20.85 250.13,26.16 258.42,31.86 266.55,37.73 274.59,43.70 282.59,49.71 290.53,55.81 298.46,61.90 306.39,67.99 314.32,74.08 322.25,80.18 330.19,86.27 338.12,92.36 346.05,98.45 353.98,104.54 361.91,110.63 369.84,116.72 377.77,122.82 385.70,128.91 393.63,135.00 401.56,141.09 409.49,147.18 417.42,153.27 425.35,159.36 433.28,165.46 441.21,171.55 449.14,177.64 457.07,183.73 465.01,189.82 472.94,195.91 480.87,202.00 488.80,208.10 496.73,214.19 504.66,220.28 512.59,226.37 520.52,232.46 528.45,238.55 536.39,244.65 544.30,250.86 551.84,257.60 558.86,264.90 565.23,272.79 570.82,281.29 575.34,290.41 578.80,299.96 581.42,309.78 582.88,319.84 583.27,329.98 582.77,340.15 580.83,350.16 577.77,359.86 573.71,369.21 564.86,383.44" type="driving"/>
    </edge>
    <edge id="0" from="0.end" to="0.begin" priority="1" type="driving" shape="563.48,382.58 572.27,368.45 576.25,359.29 579.26,349.76 581.15,339.96 581.65,329.98 581.26,319.99 579.83,310.10 577.25,300.44 573.84,291.05 569.40,282.10 563.92,273.75 557.64,265.97 550.71,258.77 543.25,252.11 535.39,245.93 527.46,239.84 519.53,233.75 511.60,227.66 503.67,221.57 495.74,215.48 487.81,209.38 479.88,203.29 471.95,197.20 464.02,191.11 456.09,185.02 448.15,178.93 440.22,172.84 432.29,166.74 424.36,160.65 416.43,154.56 408.50,148.47 400.57,142.38 392.64,136.29 384.71,130.20 376.78,124.10 368.85,118.01 360.92,111.92 352.99,105.83 345.06,99.74 337.13,93.65 329.20,87.56 321.26,81.46 313.33,75.37 305.40,69.28 297.47,63.19 289.54,57.10 281.61,51.01 273.62,45.00 265.59,39.04 257.48,33.18 249.24,27.52 240.74,22.26 231.93,17.53 222.89,13.26 213.62,9.52 204.11,6.42 194.44,3.89 184.65,1.90 174.73,0.60 164.76,0.00 154.76,0.03 144.78,0.61 134.84,1.67 125.04,3.64 115.38,6.19 105.92,9.45 96.62,13.11 87.62,17.46 78.93,22.41 70.53,27.83 62.48,33.75 54.82,40.18 47.60,47.09 40.75,54.37 34.35,62.06 28.46,70.13 23.04,78.53 18.12,87.24 13.83,96.27 10.10,105.54 6.81,114.98 4.29,124.66 2.33,134.46 1.03,144.37 0.23,154.34 0.00,164.33 0.41,174.32 1.34,184.28 2.65,194.19 4.67,203.98 7.38,213.60 10.76,223.01 14.65,232.22 19.24,241.10 24.39,249.67 30.28,257.74 36.69,265.42 43.37,272.85 50.40,279.96 57.80,286.68 65.56,292.98 73.70,298.79 82.26,303.96 91.19,308.44 100.37,312.41 109.67,316.08 119.19,319.14 128.77,322.02 138.34,324.90 147.92,327.79 157.50,330.64 167.12,333.39 176.73,336.14 186.34,338.89 195.96,341.65 205.57,344.40 215.18,347.15 224.80,349.90 234.41,352.65 244.03,355.41 253.64,358.16 263.25,360.91 272.87,363.66 282.48,366.42 292.09,369.17 301.71,371.92 311.32,374.67 320.94,377.43 330.55,380.18 340.16,382.93 349.78,385.68 359.39,388.44 369.00,391.19 378.62,393.94 388.23,396.69 397.85,399.45 407.46,402.20 417.07,404.95 426.69,407.70 436.30,410.46 445.91,413.21 455.59,415.72 465.38,417.75 475.28,419.14 485.25,419.85 495.24,419.55 505.15,418.25 514.90,416.05 524.30,412.66 533.37,408.46 541.94,403.33 549.71,397.04 556.94,390.13 563.48,382.58">
        <lane id="0_0" index="0" disallow="pedestrian tram rail_urban rail rail_electric rail_fast ship" speed="17.88" length="0.26" width="3.25" shape="562.08,381.71 562.25,381.52" type="driving"/>
    </edge>

    <junction id="0.begin" type="priority" x="563.48" y="382.58" incLanes="0_0" intLanes=":0.begin_0_0" shape="563.48,382.58 561.02,380.45 563.48,382.58">
        <request index="0" response="0" foes="0" cont="0"/>
    </junction>
    <junction id="0.end" type="priority" x="563.48" y="382.58" incLanes="-0_0" intLanes=":0.end_0_0" shape="563.48,382.58 566.24,384.30 563.48,382.58">
        <request index="0" response="0" foes="0" cont="0"/>
    </junction>

    <connection from="-0" to="0" fromLane="0" toLane="0" via=":0.end_0_0" dir="t" state="M"/>
    <connection from="0" to="-0" fromLane="0" toLane="0" via=":0.begin_0_0" dir="t" state="M"/>

    <connection from=":0.begin_0" to="-0" fromLane="0" toLane="0" dir="t" state="M"/>
    <connection from=":0.end_0" to="0" fromLane="0" toLane="0" dir="t" state="M"/>

</net>
